 94 38 11 00 01 21 02 03 04 05 06 07 08 09 0A 0B
 0C 0D 0E 0F 10 11 12 13 14 15 16 17 18 19 1A 1B
 1C 1D 1E 1F 20 21 22 23 24 25 26 27 28 29 2A 2B
 2C 2D 2E 2F 30 31 32 33 42 72 6F 78 74 6F 6E 2D
 4D 00 49 46 57 49 00 42 58 54 4D 5F 49 46 57 49
 5F 58 36 34 5F 52 5F 53 4D 42 49 4F 53 20 0D 0A
 00 42 49 4F 53 00 42 58 54 4D 52 56 50 41 2E 38
 36 43 2E 30 30 39 34 2E 52 31 34 2E 31 35 30 37
 33 31 31 37 31 31 00 43 53 45 00 33 2E 30 2E 30
 2E 37 30 31 31 00 47 4F 50 00 31 30 2E 30 2E 31
 30 31 30 00 4D 52 43 00 31 2E 33 38 00 75 43 6F
 64 65 00 39 30 30 44 31 30 30 41 00 50 2D 75 6E
 69 74 00 39 30 30 44 31 30 30 41 00 50 4D 43 00
 30 30 2E 31 30 00 49 53 48 00 30 2E 30 2E 30 2E
 30 00 53 6F 43 00 31 00 42 6F 61 72 64 20 49 44
 00 30 00 46 61 62 20 49 44 00 34 00 43 50 55 20
 46 6C 61 76 6F 72 00 30 00 50 4D 49 43 00 30 31
 2E 30 32 00 53 65 63 75 72 65 20 42 6F 6F 74 00
 31 00 42 6F 6F 74 20 4D 6F 64 65 00 30 00 53 70
 65 65 64 20 53 74 65 70 00 31 00 43 50 55 20 54
 75 72 62 6F 00 31 00 43 2D 53 74 61 74 65 00 31
 00 45 6E 68 61 6E 63 65 64 20 43 2D 53 74 61 74
 65 00 30 00 4D 61 78 50 6B 67 20 43 2D 53 74 61
 74 65 00 32 00 4D 61 78 43 6F 72 65 20 43 2D 53
 74 61 74 65 00 38 00 47 66 78 54 75 72 62 6F 00
 4E 41 00 53 30 69 78 00 31 00 52 43 36 00 31 00
 00

